BindingDB_compound_1
     RDKit          3D

 34 37  0  0  0  0  0  0  0  0999 V2000
    0.3690   -0.0731   -2.4796 C   0  0  0  0  0  0  0  0  0  0  0  0
   -1.1402    0.1742   -2.2488 C   0  0  0  0  0  0  0  0  0  0  0  0
   -1.6650   -0.5210   -1.0021 C   0  0  0  0  0  0  0  0  0  0  0  0
    1.2691    0.1250   -1.2288 C   0  0  0  0  0  0  0  0  0  0  0  0
    0.5447   -0.1325    0.1338 C   0  0  1  0  0  0  0  0  0  0  0  0
   -0.6118   -1.1249   -0.0964 C   0  0  1  0  0  0  0  0  0  0  0  0
   -0.9859   -1.6233    1.2973 C   0  0  0  0  0  0  0  0  0  0  0  0
    0.3517   -1.7008    2.0433 C   0  0  0  0  0  0  0  0  0  0  0  0
    1.3841   -0.9241    1.1861 C   0  0  2  0  0  0  0  0  0  0  0  0
    0.0255    1.2212    0.7048 C   0  0  0  0  0  0  0  0  0  0  0  0
    2.5170   -0.2197    2.0130 C   0  0  1  0  0  0  0  0  0  0  0  0
    3.6206    0.3401    1.0882 C   0  0  0  0  0  0  0  0  0  0  0  0
    4.8877    0.6709    1.8307 C   0  0  0  0  0  0  0  0  0  0  0  0
    6.1150    1.3524    1.0696 S   0  0  0  0  0  0  0  0  0  0  0  0
    6.5904    0.3531   -0.3029 C   0  0  0  0  0  0  0  0  0  0  0  0
    7.4543    1.5470    2.1499 N   0  0  0  0  0  0  0  0  0  0  0  0
    5.7012    2.7125    0.5798 O   0  0  0  0  0  0  0  0  0  0  0  0
    6.0582    0.6068   -1.5764 C   0  0  0  0  0  0  0  0  0  0  0  0
    6.4117   -0.2027   -2.6602 C   0  0  0  0  0  0  0  0  0  0  0  0
    7.2943   -1.2709   -2.4777 C   0  0  0  0  0  0  0  0  0  0  0  0
    7.8208   -1.5333   -1.2098 C   0  0  0  0  0  0  0  0  0  0  0  0
    7.4679   -0.7265   -0.1233 C   0  0  0  0  0  0  0  0  0  0  0  0
   -2.9787   -0.5774   -0.7074 C   0  0  0  0  0  0  0  0  0  0  0  0
   -4.0322    0.0605   -1.5309 C   0  0  0  0  0  0  0  0  0  0  0  0
   -5.2834    0.3166   -1.0923 C   0  0  0  0  0  0  0  0  0  0  0  0
   -6.3271    0.6937   -2.1250 C   0  0  0  0  0  0  0  0  0  0  0  0
   -7.7682    0.6426   -1.5761 C   0  0  2  0  0  0  0  0  0  0  0  0
   -7.9413   -0.5316   -0.5952 C   0  0  0  0  0  0  0  0  0  0  0  0
   -7.0952   -0.3057    0.6727 C   0  0  1  0  0  0  0  0  0  0  0  0
   -5.7025    0.1975    0.3398 C   0  0  0  0  0  0  0  0  0  0  0  0
   -8.6979    0.5602   -2.6273 O   0  0  0  0  0  0  0  0  0  0  0  0
   -7.7423    0.6262    1.5035 O   0  0  0  0  0  0  0  0  0  0  0  0
   -4.9159    0.6354    1.3336 C   0  0  0  0  0  0  0  0  0  0  0  0
    2.0668    0.8468    3.0405 C   0  0  0  0  0  0  0  0  0  0  0  0
  7  8  1  0
 15 18  2  0
  9  8  1  1
 18 19  1  0
  5  9  1  0
 19 20  2  0
  5  4  1  0
 20 21  1  0
  5 10  1  1
 21 22  2  0
 22 15  1  0
  5  6  1  0
  3 23  2  0
  9 11  1  0
 23 24  1  0
 24 25  2  0
 25 26  1  0
 11 12  1  0
  1  2  1  0
 12 13  1  0
  1  4  1  0
 13 14  2  0
 25 30  1  0
 27 26  1  0
 27 28  1  0
 29 28  1  0
 29 30  1  0
  2  3  1  0
 27 31  1  6
 14 15  1  0
 29 32  1  1
  6  3  1  0
 30 33  2  0
 14 16  1  0
 11 34  1  6
  6  7  1  1
 14 17  2  0
M  END
>  <From>  (1) 
www.bindingDB.org

>  <BindingDB Reactant_set_id>  (1) 
50231455

>  <Ligand InChI>  (1) 
InChI=1S/C29H41NO3S/c1-20(15-17-34(30,33)25-9-5-4-6-10-25)26-13-14-27-22(8-7-16-29(26,27)3)11-12-23-18-24(31)19-28(32)21(23)2/h4-6,9-12,17,20,24,26-28,31-32H,2,7-8,13-16,18-19H2,1,3H3,(H2,30,33)

>  <Ligand InChI Key>  (1) 
IXLSAZXSMBBARI-UHFFFAOYSA-N

>  <BindingDB MonomerID>  (1) 
50370925

>  <BindingDB Ligand Name>  (1) 
CHEMBL1627233

>  <Target Name>  (1) 
1,25-dihydroxyvitamin D(3) 24-hydroxylase, mitochondrial

>  <Target Source Organism According to Curator or DataSource>  (1) 
Homo sapiens

>  <Ki (nM)>  (1) 


>  <IC50 (nM)>  (1) 
 6.5

>  <Kd (nM)>  (1) 


>  <EC50 (nM)>  (1) 


>  <kon (M-1-s-1)>  (1) 


>  <koff (s-1)>  (1) 


>  <pH>  (1) 


>  <Temp C>  (1) 


>  <Curation/DataSource>  (1) 
ChEMBL

>  <Article DOI>  (1) 
10.1021/jm5009314

>  <BindingDB Entry DOI>  (1) 
10.7270/Q2DN46ND

>  <PMID>  (1) 
25148392

>  <PubChem AID>  (1) 


>  <Patent Number>  (1) 


>  <Authors>  (1) 
Ferla, S; Aboraia, AS; Brancale, A; Pepper, CJ; Zhu, J; Ochalek, JT; DeLuca, HF; Simons, C

>  <Date of publication>  (1) 
11/13/2014

>  <Date in BindingDB>  (1) 
3/6/2016

>  <Institution>  (1) 
Cardiff University

>  <Link to Ligand in BindingDB>  (1) 
http://www.bindingdb.org/bind/chemsearch/marvin/MolStructure.jsp?monomerid=50370925

>  <Link to Ligand-Target Pair in BindingDB>  (1) 
http://www.bindingdb.org/rwd/jsp/dbsearch/PrimarySearch_ki.jsp?energyterm=kJ/mole&tag=r21&monomerid=50370925&enzyme=1%2C25-dihydroxyvitamin+D%283%29+24-hydroxylase%2C+mitochondrial&column=ki&startPg=0&Increment=50&submit=Search

>  <Ligand HET ID in PDB>  (1) 


>  <PDB ID(s) for Ligand-Target Complex>  (1) 


>  <PubChem CID of Ligand>  (1) 
91930073

>  <PubChem SID of Ligand>  (1) 
160850026

>  <ChEBI ID of Ligand>  (1) 


>  <ChEMBL ID of Ligand>  (1) 
CHEMBL1627233

>  <DrugBank ID of Ligand>  (1) 


>  <IUPHAR_GRAC ID of Ligand>  (1) 


>  <KEGG ID of Ligand>  (1) 


>  <ZINC ID of Ligand>  (1) 


>  <Number of Protein Chains in Target (bigger than 1 implies a multichain complex)>  (1) 
1

>  <BindingDB Target Chain Sequence>  (1) 
MSSPISKSRSLAAFLQQLRSPRQPPRLVTSTAYTSPQPREVPVCPLTAGGETQNAAALPGPTSWPLLGSLLQILWKGGLKKQHDTLVEYHKKYGKIFRMKLGSFESVHLGSPCLLEALYRTESAYPQRLEIKPWKAYRDYRKEGYGLLILEGEDWQRVRSAFQKKLMKPGEVMKLDNKINEVLADFMGRIDELCDERGHVEDLYSELNKWSFESICLVLYEKRFGLLQKNAGDEAVNFIMAIKTMMSTFGRMMVTPVELHKSLNTKVWQDHTLAWDTIFKSVKACIDNRLEKYSQQPSADFLCDIYHQNRLSKKELYAAVTELQLAAVETTANSLMWILYNLSRNPQVQQKLLKEIQSVLPENQVPRAEDLRNMPYLKACLKESMRLTPSVPFTTRTLDKATVLGEYALPKGTVLMLNTQVLGSSEDNFEDSSQFRPERWLQEKEKINPFAHLPFGVGKRMCIGRRLAELQLHLALCWIVRKYDIQATDNEPVEMLHSGTLVPSRELPIAFCQR

>  <PDB ID(s) of Target Chain>  (1) 


>  <UniProt (SwissProt) Recommended Name of Target Chain>  (1) 
1,25-dihydroxyvitamin D(3) 24-hydroxylase, mitochondrial

>  <UniProt (SwissProt) Entry Name of Target Chain>  (1) 
CP24A_HUMAN

>  <UniProt (SwissProt) Primary ID of Target Chain>  (1) 
Q07973

>  <UniProt (SwissProt) Secondary ID(s) of Target Chain>  (1) 
Q15807 Q32ML3 Q5I2W7

>  <UniProt (SwissProt) Alternative ID(s) of Target Chain>  (1) 


>  <UniProt (TrEMBL) Submitted Name of Target Chain>  (1) 


>  <UniProt (TrEMBL) Entry Name of Target Chain>  (1) 


>  <UniProt (TrEMBL) Primary ID of Target Chain>  (1) 


>  <UniProt (TrEMBL) Secondary ID(s) of Target Chain>  (1) 


>  <UniProt (TrEMBL) Alternative ID(s) of Target Chain>  (1) 


>  <Source_SDF>  (1) 
BindingDB_50370925_2D.sdf

>  <Source_Record>  (1) 
0

>  <Canonical_SMILES>  (1) 
C=C1/C(=C\C=C2/CCC[C@]3(C)[C@@H]([C@H](C)CC=S(N)(=O)c4ccccc4)CC[C@@H]23)C[C@@H](O)C[C@@H]1O

$$$$
BindingDB_compound_2
     RDKit          3D

 34 37  0  0  1  0  0  0  0  0999 V2000
    5.5246   -1.6635   -0.8086 C   0  0  0  0  0  0  0  0  0  0  0  0
    6.3642   -0.6054    0.0558 S   0  0  0  0  0  0  0  0  0  0  0  0
    5.3324    0.4148    1.0649 C   0  0  0  0  0  0  0  0  0  0  0  0
    5.0099    1.7212    0.6662 C   0  0  0  0  0  0  0  0  0  0  0  0
    4.1527    2.5029    1.4467 C   0  0  0  0  0  0  0  0  0  0  0  0
    3.6196    1.9880    2.6315 C   0  0  0  0  0  0  0  0  0  0  0  0
    3.9477    0.6925    3.0402 C   0  0  0  0  0  0  0  0  0  0  0  0
    4.8047   -0.0915    2.2619 C   0  0  0  0  0  0  0  0  0  0  0  0
    7.4660   -1.4617    1.0781 N   0  0  0  0  0  0  0  0  0  0  0  0
    7.1597    0.2599   -0.8819 O   0  0  0  0  0  0  0  0  0  0  0  0
    4.0211   -1.7411   -0.7622 C   0  0  0  0  0  0  0  0  0  0  0  0
    3.3608   -0.6287   -1.6007 C   0  0  2  0  0  0  0  0  0  0  0  0
    1.9112   -0.3567   -1.1938 C   0  0  0  0  0  0  0  0  0  0  0  0
    0.0700    0.9560   -0.5714 C   0  0  0  0  0  0  0  0  0  0  0  0
    1.5020    0.8837   -0.9370 C   0  0  0  0  0  0  0  0  0  0  0  0
   -0.4805   -0.4166   -0.9788 C   0  0  0  0  0  0  0  0  0  0  0  0
    0.7672   -1.3523   -1.0318 C   0  0  2  0  0  0  0  0  0  0  0  0
    0.9366   -2.1390    0.2914 C   0  0  0  0  0  0  0  0  0  0  0  0
   -0.3323   -2.8895    0.6766 C   0  0  0  0  0  0  0  0  0  0  0  0
   -1.4954   -1.9408    0.9466 C   0  0  0  0  0  0  0  0  0  0  0  0
   -1.6410   -0.8332   -0.0787 C   0  0  0  0  0  0  0  0  0  0  0  0
    0.6672   -2.3057   -2.2424 C   0  0  0  0  0  0  0  0  0  0  0  0
   -2.7643   -0.0847   -0.1372 C   0  0  0  0  0  0  0  0  0  0  0  0
   -3.9398   -0.2511    0.7525 C   0  0  0  0  0  0  0  0  0  0  0  0
   -4.8977    0.6871    0.9028 C   0  0  0  0  0  0  0  0  0  0  0  0
   -6.1554    0.3613    1.6728 C   0  0  0  0  0  0  0  0  0  0  0  0
   -7.4001    0.8729    0.9299 C   0  0  2  0  0  0  0  0  0  0  0  0
   -7.2673    2.3751    0.6066 C   0  0  0  0  0  0  0  0  0  0  0  0
   -6.0298    2.6691   -0.2642 C   0  0  1  0  0  0  0  0  0  0  0  0
   -4.7963    2.0715    0.3681 C   0  0  0  0  0  0  0  0  0  0  0  0
   -3.6892    2.8076    0.5287 C   0  0  0  0  0  0  0  0  0  0  0  0
   -6.1922    2.1179   -1.5451 O   0  0  0  0  0  0  0  0  0  0  0  0
   -8.5307    0.6576    1.7329 O   0  0  0  0  0  0  0  0  0  0  0  0
    3.4943   -0.8922   -3.1070 C   0  0  0  0  0  0  0  0  0  0  0  0
  7  8  1  0
  8  3  2  0
  2  9  1  0
  4  5  2  0
  2 10  2  0
 16 21  1  0
 17 18  1  0
 18 19  1  0
 19 20  1  0
 20 21  1  0
  2  3  1  0
 17 22  1  6
  1 11  1  0
 21 23  2  0
  5  6  1  0
 23 24  1  0
 12 11  1  0
 24 25  2  0
 25 26  1  0
  1  2  2  0
 12 13  1  0
 17 13  1  0
  6  7  2  0
  3  4  1  0
 25 30  1  0
 27 26  1  0
 27 28  1  0
 29 28  1  0
 29 30  1  0
 16 14  1  0
 30 31  2  0
 14 15  1  0
 29 32  1  6
 15 13  2  0
 27 33  1  1
 17 16  1  0
 12 34  1  6
M  END
>  <From>  (2) 
www.bindingDB.org

>  <BindingDB Reactant_set_id>  (2) 
50852102

>  <Ligand InChI>  (2) 
InChI=1S/C29H39NO3S/c1-20(15-17-34(30,33)25-9-5-4-6-10-25)26-13-14-27-22(8-7-16-29(26,27)3)11-12-23-18-24(31)19-28(32)21(23)2/h4-6,9-13,17,20,24,27-28,31-32H,2,7-8,14-16,18-19H2,1,3H3,(H2,30,33)

>  <Ligand InChI Key>  (2) 
LBIGDGSFZNAQAP-UHFFFAOYSA-N

>  <BindingDB MonomerID>  (2) 
50214607

>  <BindingDB Ligand Name>  (2) 
MK-24::MK-24(S)-S(O)(NH)Ph::CHEMBL541423

>  <Target Name>  (2) 
25-hydroxyvitamin D-1 alpha hydroxylase, mitochondrial

>  <Target Source Organism According to Curator or DataSource>  (2) 
Homo sapiens

>  <Ki (nM)>  (2) 


>  <IC50 (nM)>  (2) 
 554

>  <Kd (nM)>  (2) 


>  <EC50 (nM)>  (2) 


>  <kon (M-1-s-1)>  (2) 


>  <koff (s-1)>  (2) 


>  <pH>  (2) 


>  <Temp C>  (2) 


>  <Curation/DataSource>  (2) 
ChEMBL

>  <Article DOI>  (2) 
10.1016/j.bmc.2007.05.046

>  <BindingDB Entry DOI>  (2) 
10.7270/Q20R9Q7F

>  <PMID>  (2) 
17544277

>  <PubChem AID>  (2) 


>  <Patent Number>  (2) 


>  <Authors>  (2) 
Bruno, RD; Njar, VC

>  <Date of publication>  (2) 
6/12/2007

>  <Date in BindingDB>  (2) 
12/14/2012

>  <Institution>  (2) 
University of Maryland

>  <Link to Ligand in BindingDB>  (2) 
http://www.bindingdb.org/bind/chemsearch/marvin/MolStructure.jsp?monomerid=50214607

>  <Link to Ligand-Target Pair in BindingDB>  (2) 
http://www.bindingdb.org/rwd/jsp/dbsearch/PrimarySearch_ki.jsp?energyterm=kJ/mole&tag=r21&monomerid=50214607&enzyme=25-hydroxyvitamin+D-1+alpha+hydroxylase%2C+mitochondrial&column=ki&startPg=0&Increment=50&submit=Search

>  <Ligand HET ID in PDB>  (2) 


>  <PDB ID(s) for Ligand-Target Complex>  (2) 


>  <PubChem CID of Ligand>  (2) 
91935926

>  <PubChem SID of Ligand>  (2) 
104089582

>  <ChEBI ID of Ligand>  (2) 


>  <ChEMBL ID of Ligand>  (2) 
CHEMBL541423

>  <DrugBank ID of Ligand>  (2) 


>  <IUPHAR_GRAC ID of Ligand>  (2) 


>  <KEGG ID of Ligand>  (2) 


>  <ZINC ID of Ligand>  (2) 


>  <Number of Protein Chains in Target (bigger than 1 implies a multichain complex)>  (2) 
1

>  <BindingDB Target Chain Sequence>  (2) 
MTQTLKYASRVFHRVRWAPELGASLGYREYHSARRSLADIPGPSTPSFLAELFCKGGLSRLHELQVQGAAHFGPVWLASFGTVRTVYVAAPALVEELLRQEGPRPERCSFSPWTEHRRCRQRACGLLTAEGEEWQRLRSLLAPLLLRPQAAARYAGTLNNVVCDLVRRLRRQRGRGTGPPALVRDVAGEFYKFGLEGIAAVLLGSRLGCLEAQVPPDTETFIRAVGSVFVSTLLTMAMPHWLRHLVPGPWGRLCRDWDQMFAFAQRHVERREAEAAMRNGGQPEKDLESGAHLTHFLFREELPAQSILGNVTELLLAGVDTVSNTLSWALYELSRHPEVQTALHSEITAALSPGSSAYPSATVLSQLPLLKAVVKEVLRLYPVVPGNSRVPDKDIHVGDYIIPKNTLVTLCHYATSRDPAQFPEPNSFRPARWLGEGPTPHPFASLPFGFGKRSCMGRRLAELELQMALAQILTHFEVQPEPGAAPVRPKTRTVLVPERSINLQFLDR

>  <PDB ID(s) of Target Chain>  (2) 


>  <UniProt (SwissProt) Recommended Name of Target Chain>  (2) 
25-hydroxyvitamin D-1 alpha hydroxylase, mitochondrial

>  <UniProt (SwissProt) Entry Name of Target Chain>  (2) 
CP27B_HUMAN

>  <UniProt (SwissProt) Primary ID of Target Chain>  (2) 
O15528

>  <UniProt (SwissProt) Secondary ID(s) of Target Chain>  (2) 
B2RC61 Q548T3

>  <UniProt (SwissProt) Alternative ID(s) of Target Chain>  (2) 


>  <UniProt (TrEMBL) Submitted Name of Target Chain>  (2) 


>  <UniProt (TrEMBL) Entry Name of Target Chain>  (2) 


>  <UniProt (TrEMBL) Primary ID of Target Chain>  (2) 


>  <UniProt (TrEMBL) Secondary ID(s) of Target Chain>  (2) 


>  <UniProt (TrEMBL) Alternative ID(s) of Target Chain>  (2) 


>  <Source_SDF>  (2) 
BindingDB_50214607_2D.sdf

>  <Source_Record>  (2) 
0

>  <Canonical_SMILES>  (2) 
C=C1/C(=C\C=C2/CCC[C@]3(C)C([C@H](C)CC=S(N)(=O)c4ccccc4)=CCC23)C[C@@H](O)C[C@@H]1O

$$$$
BindingDB_compound_3
     RDKit          3D

 34 37  0  0  0  0  0  0  0  0999 V2000
    7.7552   -1.4082   -0.2590 C   0  0  0  0  0  0  0  0  0  0  0  0
    8.3219   -0.3266   -0.9562 C   0  0  0  0  0  0  0  0  0  0  0  0
    7.5574    0.8029   -1.2647 C   0  0  0  0  0  0  0  0  0  0  0  0
    6.2041    0.8484   -0.8795 C   0  0  0  0  0  0  0  0  0  0  0  0
    5.6174   -0.2360   -0.1984 C   0  0  0  0  0  0  0  0  0  0  0  0
    6.4100   -1.3499    0.1182 C   0  0  0  0  0  0  0  0  0  0  0  0
    4.1987   -0.2297    0.2370 C   0  0  0  0  0  0  0  0  0  0  0  0
    3.2423    0.4990   -0.3605 C   0  0  0  0  0  0  0  0  0  0  0  0
    1.8223    0.5076    0.0711 C   0  0  0  0  0  0  0  0  0  0  0  0
    1.0186    1.6001   -0.2892 C   0  0  0  0  0  0  0  0  0  0  0  0
   -0.3266    1.6503    0.0854 C   0  0  0  0  0  0  0  0  0  0  0  0
   -0.9052    0.5981    0.8139 C   0  0  0  0  0  0  0  0  0  0  0  0
   -0.1048   -0.5005    1.1704 C   0  0  0  0  0  0  0  0  0  0  0  0
    1.2420   -0.5500    0.7980 C   0  0  0  0  0  0  0  0  0  0  0  0
   -2.3335    0.6666    1.2032 C   0  0  0  0  0  0  0  0  0  0  0  0
   -3.1029   -0.5293    1.4187 N   0  0  0  0  0  0  0  0  0  0  0  0
   -2.8832    1.7953    1.3268 O   0  0  0  0  0  0  0  0  0  0  0  0
   -4.5326   -0.5030    1.7289 C   0  0  0  0  0  0  0  0  0  0  0  0
   -5.3610   -0.6947    0.4432 C   0  0  0  0  0  0  0  0  0  0  0  0
   -6.8310   -0.9702    0.7131 C   0  0  0  0  0  0  0  0  0  0  0  0
   -5.2125    0.4584   -0.4522 N   0  0  0  0  0  0  0  0  0  0  0  0
   -7.5105   -1.9160   -0.0773 C   0  0  0  0  0  0  0  0  0  0  0  0
   -8.8720   -2.1627    0.1222 C   0  0  0  0  0  0  0  0  0  0  0  0
   -9.5749   -1.4600    1.1026 C   0  0  0  0  0  0  0  0  0  0  0  0
   -8.9189   -0.5049    1.8815 C   0  0  0  0  0  0  0  0  0  0  0  0
   -7.5574   -0.2539    1.6865 C   0  0  0  0  0  0  0  0  0  0  0  0
   -4.5637    0.4763   -1.6336 C   0  0  0  0  0  0  0  0  0  0  0  0
   -4.5644    1.6980   -2.2061 N   0  0  0  0  0  0  0  0  0  0  0  0
   -5.2437    2.4737   -1.3368 C   0  0  0  0  0  0  0  0  0  0  0  0
   -5.6412    1.7186   -0.2572 C   0  0  0  0  0  0  0  0  0  0  0  0
    8.4909   -2.5546    0.0771 O   0  0  0  0  0  0  0  0  0  0  0  0
    9.8647   -2.7515   -0.2413 C   0  0  0  0  0  0  0  0  0  0  0  0
    8.1803    1.8575   -1.9499 O   0  0  0  0  0  0  0  0  0  0  0  0
    7.5311    3.0654   -2.3336 C   0  0  0  0  0  0  0  0  0  0  0  0
  1  2  2  0
  2  3  1  0
  3  4  2  0
  4  5  1  0
  5  6  2  0
  6  1  1  0
  5  7  1  0
  7  8  2  0
  8  9  1  0
  9 10  2  0
 10 11  1  0
 11 12  2  0
 12 13  1  0
 13 14  2  0
 14  9  1  0
 12 15  1  0
 15 16  1  0
 15 17  2  0
 16 18  1  0
 18 19  1  0
 19 20  1  0
 19 21  1  0
 20 22  2  0
 22 23  1  0
 23 24  2  0
 24 25  1  0
 25 26  2  0
 26 20  1  0
 21 27  1  0
 27 28  2  0
 28 29  1  0
 29 30  2  0
 30 21  1  0
  1 31  1  0
 31 32  1  0
  3 33  1  0
 33 34  1  0
M  END
>  <From>  (3) 
www.bindingDB.org

>  <BindingDB Reactant_set_id>  (3) 
50231403

>  <Ligand InChI>  (3) 
InChI=1S/C28H27N3O3/c1-33-25-16-22(17-26(18-25)34-2)9-8-21-10-12-24(13-11-21)28(32)30-19-27(31-15-14-29-20-31)23-6-4-3-5-7-23/h3-18,20,27H,19H2,1-2H3,(H,30,32)

>  <Ligand InChI Key>  (3) 
ZMOAYVPFKZSDGH-UHFFFAOYSA-N

>  <BindingDB MonomerID>  (3) 
50023348

>  <BindingDB Ligand Name>  (3) 
CHEMBL3329769

>  <Target Name>  (3) 
1,25-dihydroxyvitamin D(3) 24-hydroxylase, mitochondrial

>  <Target Source Organism According to Curator or DataSource>  (3) 
Homo sapiens

>  <Ki (nM)>  (3) 
 7.8

>  <IC50 (nM)>  (3) 


>  <Kd (nM)>  (3) 


>  <EC50 (nM)>  (3) 


>  <kon (M-1-s-1)>  (3) 


>  <koff (s-1)>  (3) 


>  <pH>  (3) 


>  <Temp C>  (3) 


>  <Curation/DataSource>  (3) 
ChEMBL

>  <Article DOI>  (3) 
10.1021/jm5009314

>  <BindingDB Entry DOI>  (3) 
10.7270/Q2DN46ND

>  <PMID>  (3) 
25148392

>  <PubChem AID>  (3) 


>  <Patent Number>  (3) 


>  <Authors>  (3) 
Ferla, S; Aboraia, AS; Brancale, A; Pepper, CJ; Zhu, J; Ochalek, JT; DeLuca, HF; Simons, C

>  <Date of publication>  (3) 
11/13/2014

>  <Date in BindingDB>  (3) 
3/6/2016

>  <Institution>  (3) 
Cardiff University

>  <Link to Ligand in BindingDB>  (3) 
http://www.bindingdb.org/bind/chemsearch/marvin/MolStructure.jsp?monomerid=50023348

>  <Link to Ligand-Target Pair in BindingDB>  (3) 
http://www.bindingdb.org/rwd/jsp/dbsearch/PrimarySearch_ki.jsp?energyterm=kJ/mole&tag=r21&monomerid=50023348&enzyme=1%2C25-dihydroxyvitamin+D%283%29+24-hydroxylase%2C+mitochondrial&column=ki&startPg=0&Increment=50&submit=Search

>  <Ligand HET ID in PDB>  (3) 


>  <PDB ID(s) for Ligand-Target Complex>  (3) 


>  <PubChem CID of Ligand>  (3) 
118712541

>  <PubChem SID of Ligand>  (3) 
103933852

>  <ChEBI ID of Ligand>  (3) 


>  <ChEMBL ID of Ligand>  (3) 
CHEMBL3329769

>  <DrugBank ID of Ligand>  (3) 


>  <IUPHAR_GRAC ID of Ligand>  (3) 


>  <KEGG ID of Ligand>  (3) 


>  <ZINC ID of Ligand>  (3) 


>  <Number of Protein Chains in Target (bigger than 1 implies a multichain complex)>  (3) 
1

>  <BindingDB Target Chain Sequence>  (3) 
MSSPISKSRSLAAFLQQLRSPRQPPRLVTSTAYTSPQPREVPVCPLTAGGETQNAAALPGPTSWPLLGSLLQILWKGGLKKQHDTLVEYHKKYGKIFRMKLGSFESVHLGSPCLLEALYRTESAYPQRLEIKPWKAYRDYRKEGYGLLILEGEDWQRVRSAFQKKLMKPGEVMKLDNKINEVLADFMGRIDELCDERGHVEDLYSELNKWSFESICLVLYEKRFGLLQKNAGDEAVNFIMAIKTMMSTFGRMMVTPVELHKSLNTKVWQDHTLAWDTIFKSVKACIDNRLEKYSQQPSADFLCDIYHQNRLSKKELYAAVTELQLAAVETTANSLMWILYNLSRNPQVQQKLLKEIQSVLPENQVPRAEDLRNMPYLKACLKESMRLTPSVPFTTRTLDKATVLGEYALPKGTVLMLNTQVLGSSEDNFEDSSQFRPERWLQEKEKINPFAHLPFGVGKRMCIGRRLAELQLHLALCWIVRKYDIQATDNEPVEMLHSGTLVPSRELPIAFCQR

>  <PDB ID(s) of Target Chain>  (3) 


>  <UniProt (SwissProt) Recommended Name of Target Chain>  (3) 
1,25-dihydroxyvitamin D(3) 24-hydroxylase, mitochondrial

>  <UniProt (SwissProt) Entry Name of Target Chain>  (3) 
CP24A_HUMAN

>  <UniProt (SwissProt) Primary ID of Target Chain>  (3) 
Q07973

>  <UniProt (SwissProt) Secondary ID(s) of Target Chain>  (3) 
Q15807 Q32ML3 Q5I2W7

>  <UniProt (SwissProt) Alternative ID(s) of Target Chain>  (3) 


>  <UniProt (TrEMBL) Submitted Name of Target Chain>  (3) 


>  <UniProt (TrEMBL) Entry Name of Target Chain>  (3) 


>  <UniProt (TrEMBL) Primary ID of Target Chain>  (3) 


>  <UniProt (TrEMBL) Secondary ID(s) of Target Chain>  (3) 


>  <UniProt (TrEMBL) Alternative ID(s) of Target Chain>  (3) 


>  <Source_SDF>  (3) 
BindingDB_50023348_2D.sdf

>  <Source_Record>  (3) 
0

>  <Canonical_SMILES>  (3) 
COc1cc(/C=C/c2ccc(C(=O)NCC(c3ccccc3)n3ccnc3)cc2)cc(OC)c1

$$$$
BindingDB_compound_4
     RDKit          3D

 36 39  0  0  0  0  0  0  0  0999 V2000
   -6.7341    0.5852   -0.1783 C   0  0  0  0  0  0  0  0  0  0  0  0
   -7.2341   -0.6063   -0.7630 C   0  0  0  0  0  0  0  0  0  0  0  0
   -6.3608   -1.6763   -1.0163 C   0  0  0  0  0  0  0  0  0  0  0  0
   -4.9991   -1.5697   -0.6827 C   0  0  0  0  0  0  0  0  0  0  0  0
   -4.4972   -0.4036   -0.0844 C   0  0  0  0  0  0  0  0  0  0  0  0
   -5.3663    0.6692    0.1473 C   0  0  0  0  0  0  0  0  0  0  0  0
   -3.0651   -0.2474    0.2735 C   0  0  0  0  0  0  0  0  0  0  0  0
   -2.2545   -1.2800    0.5554 C   0  0  0  0  0  0  0  0  0  0  0  0
   -0.8226   -1.1278    0.9138 C   0  0  0  0  0  0  0  0  0  0  0  0
   -0.2976    0.0615    1.4555 C   0  0  0  0  0  0  0  0  0  0  0  0
    1.0580    0.1534    1.7854 C   0  0  0  0  0  0  0  0  0  0  0  0
    1.9171   -0.9404    1.5867 C   0  0  0  0  0  0  0  0  0  0  0  0
    1.3869   -2.1354    1.0738 C   0  0  0  0  0  0  0  0  0  0  0  0
    0.0325   -2.2275    0.7433 C   0  0  0  0  0  0  0  0  0  0  0  0
    3.3571   -0.8571    1.9229 C   0  0  0  0  0  0  0  0  0  0  0  0
    4.0666    0.3921    1.8453 N   0  0  0  0  0  0  0  0  0  0  0  0
    3.9751   -1.9087    2.2454 O   0  0  0  0  0  0  0  0  0  0  0  0
    5.5174    0.4834    2.0319 C   0  0  0  0  0  0  0  0  0  0  0  0
    6.3060    0.3215    0.7033 C   0  0  0  0  0  0  0  0  0  0  0  0
    6.6976    1.6335    0.0369 C   0  0  0  0  0  0  0  0  0  0  0  0
    5.6169   -0.5609   -0.2490 N   0  0  0  0  0  0  0  0  0  0  0  0
    5.8329    2.7459   -0.0028 C   0  0  0  0  0  0  0  0  0  0  0  0
    6.2130    3.9174   -0.6646 C   0  0  0  0  0  0  0  0  0  0  0  0
    7.4505    3.9909   -1.3063 C   0  0  0  0  0  0  0  0  0  0  0  0
    8.3085    2.8900   -1.2932 C   0  0  0  0  0  0  0  0  0  0  0  0
    7.9333    1.7164   -0.6331 C   0  0  0  0  0  0  0  0  0  0  0  0
    4.6213   -0.2480   -1.1064 C   0  0  0  0  0  0  0  0  0  0  0  0
    4.1711   -1.3207   -1.7896 N   0  0  0  0  0  0  0  0  0  0  0  0
    4.9196   -2.3452   -1.3334 C   0  0  0  0  0  0  0  0  0  0  0  0
    5.8046   -1.8844   -0.3856 C   0  0  0  0  0  0  0  0  0  0  0  0
   -7.5998    1.6628    0.0683 O   0  0  0  0  0  0  0  0  0  0  0  0
   -7.2159    2.9056    0.6486 C   0  0  0  0  0  0  0  0  0  0  0  0
   -6.8899   -2.8352   -1.6087 O   0  0  0  0  0  0  0  0  0  0  0  0
   -6.1365   -4.0022   -1.9232 C   0  0  0  0  0  0  0  0  0  0  0  0
   -8.5833   -0.7949   -1.1210 O   0  0  0  0  0  0  0  0  0  0  0  0
   -9.6446    0.1392   -0.9567 C   0  0  0  0  0  0  0  0  0  0  0  0
  1  2  2  0
  2  3  1  0
  3  4  2  0
  4  5  1  0
  5  6  2  0
  6  1  1  0
  5  7  1  0
  7  8  2  0
  8  9  1  0
  9 10  2  0
 10 11  1  0
 11 12  2  0
 12 13  1  0
 13 14  2  0
 14  9  1  0
 12 15  1  0
 15 16  1  0
 15 17  2  0
 16 18  1  0
 18 19  1  0
 19 20  1  0
 19 21  1  0
 20 22  2  0
 22 23  1  0
 23 24  2  0
 24 25  1  0
 25 26  2  0
 26 20  1  0
 21 27  1  0
 27 28  2  0
 28 29  1  0
 29 30  2  0
 30 21  1  0
  1 31  1  0
 31 32  1  0
  3 33  1  0
 33 34  1  0
  2 35  1  0
 35 36  1  0
M  END
>  <From>  (4) 
www.bindingDB.org

>  <BindingDB Reactant_set_id>  (4) 
50231404

>  <Ligand InChI>  (4) 
InChI=1S/C29H29N3O4/c1-34-26-17-22(18-27(35-2)28(26)36-3)10-9-21-11-13-24(14-12-21)29(33)31-19-25(32-16-15-30-20-32)23-7-5-4-6-8-23/h4-18,20,25H,19H2,1-3H3,(H,31,33)

>  <Ligand InChI Key>  (4) 
HUCXTWQGDIPUNL-UHFFFAOYSA-N

>  <BindingDB MonomerID>  (4) 
50023349

>  <BindingDB Ligand Name>  (4) 
CHEMBL3329770

>  <Target Name>  (4) 
1,25-dihydroxyvitamin D(3) 24-hydroxylase, mitochondrial

>  <Target Source Organism According to Curator or DataSource>  (4) 
Homo sapiens

>  <Ki (nM)>  (4) 
 9.7

>  <IC50 (nM)>  (4) 


>  <Kd (nM)>  (4) 


>  <EC50 (nM)>  (4) 


>  <kon (M-1-s-1)>  (4) 


>  <koff (s-1)>  (4) 


>  <pH>  (4) 


>  <Temp C>  (4) 


>  <Curation/DataSource>  (4) 
ChEMBL

>  <Article DOI>  (4) 
10.1021/jm5009314

>  <BindingDB Entry DOI>  (4) 
10.7270/Q2DN46ND

>  <PMID>  (4) 
25148392

>  <PubChem AID>  (4) 


>  <Patent Number>  (4) 


>  <Authors>  (4) 
Ferla, S; Aboraia, AS; Brancale, A; Pepper, CJ; Zhu, J; Ochalek, JT; DeLuca, HF; Simons, C

>  <Date of publication>  (4) 
11/13/2014

>  <Date in BindingDB>  (4) 
3/6/2016

>  <Institution>  (4) 
Cardiff University

>  <Link to Ligand in BindingDB>  (4) 
http://www.bindingdb.org/bind/chemsearch/marvin/MolStructure.jsp?monomerid=50023349

>  <Link to Ligand-Target Pair in BindingDB>  (4) 
http://www.bindingdb.org/rwd/jsp/dbsearch/PrimarySearch_ki.jsp?energyterm=kJ/mole&tag=r21&monomerid=50023349&enzyme=1%2C25-dihydroxyvitamin+D%283%29+24-hydroxylase%2C+mitochondrial&column=ki&startPg=0&Increment=50&submit=Search

>  <Ligand HET ID in PDB>  (4) 


>  <PDB ID(s) for Ligand-Target Complex>  (4) 


>  <PubChem CID of Ligand>  (4) 
118712542

>  <PubChem SID of Ligand>  (4) 
103933853

>  <ChEBI ID of Ligand>  (4) 


>  <ChEMBL ID of Ligand>  (4) 
CHEMBL3329770

>  <DrugBank ID of Ligand>  (4) 


>  <IUPHAR_GRAC ID of Ligand>  (4) 


>  <KEGG ID of Ligand>  (4) 


>  <ZINC ID of Ligand>  (4) 


>  <Number of Protein Chains in Target (bigger than 1 implies a multichain complex)>  (4) 
1

>  <BindingDB Target Chain Sequence>  (4) 
MSSPISKSRSLAAFLQQLRSPRQPPRLVTSTAYTSPQPREVPVCPLTAGGETQNAAALPGPTSWPLLGSLLQILWKGGLKKQHDTLVEYHKKYGKIFRMKLGSFESVHLGSPCLLEALYRTESAYPQRLEIKPWKAYRDYRKEGYGLLILEGEDWQRVRSAFQKKLMKPGEVMKLDNKINEVLADFMGRIDELCDERGHVEDLYSELNKWSFESICLVLYEKRFGLLQKNAGDEAVNFIMAIKTMMSTFGRMMVTPVELHKSLNTKVWQDHTLAWDTIFKSVKACIDNRLEKYSQQPSADFLCDIYHQNRLSKKELYAAVTELQLAAVETTANSLMWILYNLSRNPQVQQKLLKEIQSVLPENQVPRAEDLRNMPYLKACLKESMRLTPSVPFTTRTLDKATVLGEYALPKGTVLMLNTQVLGSSEDNFEDSSQFRPERWLQEKEKINPFAHLPFGVGKRMCIGRRLAELQLHLALCWIVRKYDIQATDNEPVEMLHSGTLVPSRELPIAFCQR

>  <PDB ID(s) of Target Chain>  (4) 


>  <UniProt (SwissProt) Recommended Name of Target Chain>  (4) 
1,25-dihydroxyvitamin D(3) 24-hydroxylase, mitochondrial

>  <UniProt (SwissProt) Entry Name of Target Chain>  (4) 
CP24A_HUMAN

>  <UniProt (SwissProt) Primary ID of Target Chain>  (4) 
Q07973

>  <UniProt (SwissProt) Secondary ID(s) of Target Chain>  (4) 
Q15807 Q32ML3 Q5I2W7

>  <UniProt (SwissProt) Alternative ID(s) of Target Chain>  (4) 


>  <UniProt (TrEMBL) Submitted Name of Target Chain>  (4) 


>  <UniProt (TrEMBL) Entry Name of Target Chain>  (4) 


>  <UniProt (TrEMBL) Primary ID of Target Chain>  (4) 


>  <UniProt (TrEMBL) Secondary ID(s) of Target Chain>  (4) 


>  <UniProt (TrEMBL) Alternative ID(s) of Target Chain>  (4) 


>  <Source_SDF>  (4) 
BindingDB_50023349_2D.sdf

>  <Source_Record>  (4) 
0

>  <Canonical_SMILES>  (4) 
COc1cc(/C=C/c2ccc(C(=O)NCC(c3ccccc3)n3ccnc3)cc2)cc(OC)c1OC

$$$$
